Version 4
SHEET 1 3148 1188
WIRE -544 -128 -560 -128
WIRE -336 -128 -352 -128
WIRE 96 -128 80 -128
WIRE 320 -128 304 -128
WIRE 544 -128 528 -128
WIRE 688 -128 640 -128
WIRE 880 -128 688 -128
WIRE 1024 -128 880 -128
WIRE 1184 -128 1024 -128
WIRE 96 -80 96 -128
WIRE 320 -80 320 -128
WIRE 544 -80 544 -128
WIRE 640 -80 640 -128
WIRE -560 -64 -560 -128
WIRE -352 -64 -352 -128
WIRE 96 48 96 0
WIRE 320 48 320 0
WIRE 592 48 592 -16
WIRE 688 48 688 -128
WIRE -560 80 -560 16
WIRE -352 80 -352 16
WIRE 208 96 160 96
WIRE 256 96 208 96
WIRE 880 128 880 -128
WIRE 1024 160 1024 -128
WIRE 1184 160 1184 -128
WIRE 96 192 96 144
WIRE 208 192 208 96
WIRE 208 192 96 192
WIRE 320 192 320 144
WIRE 640 192 640 112
WIRE 640 192 320 192
WIRE 96 240 96 192
WIRE 320 240 320 192
WIRE 32 288 -16 288
WIRE 736 288 384 288
WIRE 880 288 880 208
WIRE 880 288 736 288
WIRE 880 336 880 288
WIRE 96 384 96 336
WIRE 208 384 96 384
WIRE 320 384 320 336
WIRE 320 384 208 384
WIRE 16 432 -16 432
WIRE 1024 432 1024 240
WIRE 1184 432 1184 224
WIRE 1184 432 1024 432
WIRE 16 464 16 432
WIRE 16 576 16 544
WIRE 112 576 16 576
WIRE 16 608 16 576
WIRE 208 608 208 384
WIRE 112 656 112 576
WIRE 112 656 80 656
WIRE 144 656 112 656
WIRE 880 752 880 416
WIRE 1024 752 1024 432
WIRE 16 768 16 704
WIRE 208 768 208 704
FLAG 1024 -128 Vo
FLAG -544 -128 Vref
IOPIN -544 -128 Out
FLAG 736 288 Vf
FLAG -560 80 0
FLAG -336 -128 vcc
IOPIN -336 -128 Out
FLAG 1024 752 0
FLAG 880 752 0
FLAG -16 288 Vref
IOPIN -16 288 In
FLAG -16 432 Vref
IOPIN -16 432 In
FLAG -352 80 0
FLAG 16 768 0
FLAG 208 768 0
FLAG 80 -128 vcc
IOPIN 80 -128 In
FLAG 304 -128 vcc
IOPIN 304 -128 In
FLAG 528 -128 vcc
IOPIN 528 -128 In
DATAFLAG 848 -32 ""
DATAFLAG 528 -128 ""
DATAFLAG 736 -128 ""
DATAFLAG 592 0 ""
DATAFLAG 640 144 ""
DATAFLAG 320 0 ""
DATAFLAG 96 32 ""
DATAFLAG 176 96 ""
DATAFLAG 96 192 ""
DATAFLAG 320 -128 ""
SYMBOL pnp 160 144 R180
SYMATTR InstName Q3
SYMATTR Value BC557C
SYMBOL pnp 256 144 M180
SYMATTR InstName Q4
SYMATTR Value BC557C
SYMBOL npn 32 240 R0
SYMATTR InstName Q1
SYMATTR Value BC547C
SYMBOL npn 384 240 M0
SYMATTR InstName Q2
SYMATTR Value BC547C
SYMBOL pnp 640 -16 M270
SYMATTR InstName Q5
SYMATTR Value D45H11
SYMBOL npn 592 112 R270
SYMATTR InstName Q6
SYMATTR Value 2N3019
SYMBOL res 864 112 R0
SYMATTR InstName R5
SYMATTR Value 5k
SYMBOL res 864 320 R0
SYMATTR InstName R6
SYMATTR Value 5k
SYMBOL res 1008 144 R0
SYMATTR InstName RL
SYMATTR Value {RL}
SYMBOL voltage -560 -80 R0
WINDOW 123 24 124 Left 2
WINDOW 39 0 0 Left 0
SYMATTR Value2 AC {VREFAC}
SYMATTR InstName V1
SYMATTR Value {VREFDC}
SYMBOL res 80 -96 R0
SYMATTR InstName R8
SYMATTR Value {RE}
SYMBOL res 304 -96 R0
SYMATTR InstName R9
SYMATTR Value {RE}
SYMBOL cap 1168 160 R0
SYMATTR InstName C3
SYMATTR Value 1µ
SYMBOL voltage -352 -80 R0
WINDOW 123 24 124 Left 2
WINDOW 39 0 0 Left 0
SYMATTR InstName VIN
SYMATTR Value {VINDC}
SYMATTR Value2 AC {VINAC}
SYMBOL npn 144 608 R0
SYMATTR InstName Q7
SYMATTR Value BC547C
SYMBOL npn 80 608 M0
SYMATTR InstName Q8
SYMATTR Value BC547C
SYMBOL res 0 448 R0
SYMATTR InstName Rpol
SYMATTR Value 1.84k
TEXT 1760 472 Left 2 !.op
TEXT 1736 544 Left 2 !.param VINDC 5.8
TEXT 1736 584 Left 2 !.param VINAC 1
TEXT 2064 544 Left 2 !.param VREFDC 2.5
TEXT 2064 584 Left 2 !.param VREFAC 0
TEXT 2408 544 Left 2 !.param RL 1k
TEXT 1736 632 Left 2 !;dc VIN 2 24
TEXT 2816 584 Left 2 !;step param RE 1 1k 100
TEXT 2816 544 Left 2 !.param RE 50
TEXT 2400 584 Left 2 !;step param RL 1k 5 10
TEXT 1648 -24 Left 2 ;Mido regulacion de linea
TEXT 1648 16 Left 2 !.meas DC Vo1rl FIND V(Vo) AT=12
TEXT 1648 40 Left 2 !.meas DC Vo2rl FIND V(Vo) AT=24
TEXT 1648 64 Left 2 !.meas DC RegLin PARAM ((Vo2rl-Vo1rl)/12)
TEXT 1648 120 Left 2 ;Mido regulacion de carga
TEXT 1648 160 Left 2 !.meas OP Vo1rc FIND V(Vo) AT 100
TEXT 1648 184 Left 2 !.meas OP Vo2rc FIND V(Vo) AT 5
TEXT 1648 208 Left 2 !.meas OP Io1rc FIND I(RL) AT 100
TEXT 1648 232 Left 2 !.meas OP Io2rc FIND I(RL) AT 5
TEXT 1656 296 Left 2 ;Mido eficiencia
TEXT 1656 336 Left 2 ;-100*((V(vo)*I(RL))/(V(VIN)*I(VIN)))
TEXT 1648 256 Left 2 !.meas OP RegCar PARAM (-(Vo2rc-Vo1rc)/(Io2rc-Io1rc))
