Version 4
SHEET 1 2316 992
WIRE -1008 -272 -1264 -272
WIRE 112 -256 96 -256
WIRE 336 -256 320 -256
WIRE -1152 -192 -1168 -192
WIRE -960 -192 -976 -192
WIRE -1152 -160 -1152 -192
WIRE -960 -160 -960 -192
WIRE -1264 -144 -1264 -272
WIRE -1264 -144 -1344 -144
WIRE -1200 -144 -1264 -144
WIRE -1008 -144 -1008 -272
WIRE 96 -144 96 -256
WIRE 320 -144 320 -256
WIRE -1344 -96 -1344 -144
WIRE -1200 -96 -1216 -96
WIRE -1008 -96 -1024 -96
WIRE -1216 -48 -1216 -96
WIRE -1024 -48 -1024 -96
WIRE -1152 -16 -1152 -80
WIRE -1056 -16 -1152 -16
WIRE -960 -16 -960 -80
WIRE -960 -16 -1056 -16
WIRE -1056 16 -1056 -16
WIRE -1344 32 -1344 -16
WIRE 96 48 96 -64
WIRE 320 48 320 -64
WIRE 208 96 160 96
WIRE 256 96 208 96
WIRE -1056 128 -1056 96
WIRE 96 192 96 144
WIRE 208 192 208 96
WIRE 208 192 96 192
WIRE 320 192 320 144
WIRE 560 192 320 192
WIRE 96 256 96 192
WIRE 320 256 320 192
WIRE -1328 304 -1344 304
WIRE -1088 304 -1104 304
WIRE 32 304 -48 304
WIRE 448 304 384 304
WIRE -528 352 -560 352
WIRE -400 352 -448 352
WIRE -48 368 -48 304
WIRE 448 368 448 304
WIRE -1344 384 -1344 304
WIRE -1104 384 -1104 304
WIRE -400 464 -400 352
WIRE -240 464 -400 464
WIRE 96 464 96 352
WIRE 208 464 96 464
WIRE 320 464 320 352
WIRE 320 464 208 464
WIRE -48 512 -48 448
WIRE -32 512 -48 512
WIRE 448 512 448 448
WIRE 464 512 448 512
WIRE -1344 544 -1344 464
WIRE -1216 544 -1344 544
WIRE -1104 544 -1104 464
WIRE -400 576 -400 464
WIRE 208 576 208 464
WIRE -1216 592 -1216 544
WIRE -1344 624 -1344 544
WIRE -240 624 -240 464
WIRE -240 624 -336 624
WIRE 144 624 -240 624
WIRE -1344 784 -1344 704
WIRE -1328 784 -1344 784
WIRE -400 784 -400 672
WIRE -384 784 -400 784
WIRE 208 784 208 672
WIRE 224 784 208 784
FLAG -560 352 Vref
IOPIN -560 352 In
FLAG 112 -256 Vcc
IOPIN 112 -256 In
FLAG 336 -256 Vcc
IOPIN 336 -256 In
FLAG -1056 128 0
FLAG -1152 -192 vi1
FLAG -960 -192 vi2
FLAG -1344 32 0
FLAG -1216 -48 0
FLAG -1024 -48 0
FLAG -32 512 vi1
IOPIN -32 512 In
FLAG 464 512 vi2
IOPIN 464 512 In
FLAG 560 192 vo
IOPIN 560 192 Out
FLAG -1328 304 Vcc
IOPIN -1328 304 In
FLAG -1104 544 0
FLAG -1088 304 Vref
IOPIN -1088 304 In
FLAG -1328 784 -Vcc
IOPIN -1328 784 In
FLAG -1216 592 0
FLAG -384 784 -Vcc
IOPIN -384 784 In
FLAG 224 784 -Vcc
IOPIN 224 784 In
DATAFLAG -400 352 ""
DATAFLAG -544 352 ""
DATAFLAG 96 -208 ""
DATAFLAG 320 -192 ""
DATAFLAG 96 0 ""
DATAFLAG 320 0 ""
DATAFLAG 512 192 ""
DATAFLAG 96 224 ""
DATAFLAG 416 192 ""
DATAFLAG 208 528 ""
SYMBOL pnp 160 144 R180
SYMATTR InstName Q3
SYMATTR Value BC557C
SYMBOL pnp 256 144 M180
SYMATTR InstName Q4
SYMATTR Value BC557C
SYMBOL npn 32 256 R0
SYMATTR InstName Q1
SYMATTR Value BC547C
SYMBOL npn 384 256 M0
SYMATTR InstName Q2
SYMATTR Value BC547C
SYMBOL res 80 -160 R0
SYMATTR InstName R8
SYMATTR Value 10
SYMBOL res 304 -160 R0
SYMATTR InstName R9
SYMATTR Value 10
SYMBOL npn 144 576 R0
SYMATTR InstName Q5
SYMATTR Value BC547C
SYMBOL npn -336 576 M0
SYMATTR InstName Q6
SYMATTR Value BC547C
SYMBOL res -432 336 R90
WINDOW 0 0 56 VBottom 2
WINDOW 3 32 56 VTop 2
SYMATTR InstName R1
SYMATTR Value 13k
SYMBOL voltage -1344 -112 R0
WINDOW 123 24 44 Left 2
WINDOW 39 0 0 Left 0
SYMATTR Value2 AC 1
SYMATTR InstName vid1
SYMATTR Value ""
SYMBOL e -1152 -176 R0
SYMATTR InstName vid2
SYMATTR Value 0.5
SYMBOL e -960 -176 R0
SYMATTR InstName E1
SYMATTR Value -0.5
SYMBOL voltage -1056 0 R0
SYMATTR InstName vic1
SYMATTR Value 0
SYMBOL res -64 352 R0
SYMATTR InstName R2
SYMATTR Value 1k
SYMBOL res 432 352 R0
SYMATTR InstName R3
SYMATTR Value 1k
SYMBOL voltage -1344 368 R0
WINDOW 123 0 0 Left 0
WINDOW 39 0 0 Left 0
SYMATTR InstName V2
SYMATTR Value 12
SYMBOL voltage -1104 368 R0
WINDOW 123 0 0 Left 0
WINDOW 39 0 0 Left 0
SYMATTR InstName V3
SYMATTR Value 1.7
SYMBOL voltage -1344 608 R0
WINDOW 123 0 0 Left 0
WINDOW 39 0 0 Left 0
SYMATTR InstName V1
SYMATTR Value 12
TEXT -640 832 Left 2 !.op
TEXT -648 976 Left 2 !;dc VIN 3 24
TEXT -648 936 Left 2 !;step param RL 1k 5 10
TEXT -624 880 Left 2 !.ac dec 30 10 1Meg
