Version 4
SHEET 1 3456 1188
WIRE -544 -128 -560 -128
WIRE -336 -128 -352 -128
WIRE 96 -128 80 -128
WIRE 320 -128 304 -128
WIRE 720 -128 704 -128
WIRE 928 -128 912 -128
WIRE 1072 -128 1024 -128
WIRE 1184 -128 1072 -128
WIRE 1280 -128 1184 -128
WIRE 1456 -128 1360 -128
WIRE 1616 -128 1456 -128
WIRE 1760 -128 1616 -128
WIRE 1920 -128 1760 -128
WIRE 96 -80 96 -128
WIRE 320 -80 320 -128
WIRE 720 -80 720 -128
WIRE 928 -80 928 -128
WIRE 1024 -80 1024 -128
WIRE -560 -64 -560 -128
WIRE -352 -64 -352 -128
WIRE 1184 16 1184 -128
WIRE 1312 16 1184 16
WIRE 96 48 96 0
WIRE 320 48 320 0
WIRE 720 48 720 0
WIRE 976 48 976 -16
WIRE 1072 48 1072 -128
WIRE -560 80 -560 16
WIRE -352 80 -352 16
WIRE 208 96 160 96
WIRE 256 96 208 96
WIRE 656 96 592 96
WIRE 1312 128 1312 16
WIRE 1616 128 1616 -128
WIRE 1760 160 1760 -128
WIRE 1920 160 1920 -128
WIRE 96 192 96 144
WIRE 144 192 96 192
WIRE 208 192 208 96
WIRE 320 192 320 144
WIRE 320 192 208 192
WIRE 592 192 592 96
WIRE 592 192 544 192
WIRE 624 192 592 192
WIRE 720 192 720 144
WIRE 720 192 688 192
WIRE 1024 192 1024 112
WIRE 1024 192 720 192
WIRE 1264 192 1024 192
WIRE 1456 192 1456 -128
WIRE 1456 192 1360 192
WIRE 96 240 96 192
WIRE 320 240 320 192
WIRE 720 240 720 192
WIRE 32 288 -16 288
WIRE 432 288 384 288
WIRE 656 288 608 288
WIRE 1616 288 1616 208
WIRE 1616 288 1472 288
WIRE 1616 336 1616 288
WIRE 96 384 96 336
WIRE 208 384 96 384
WIRE 320 384 320 336
WIRE 320 384 208 384
WIRE 720 384 720 336
WIRE 16 432 -16 432
WIRE 1760 432 1760 240
WIRE 1920 432 1920 224
WIRE 1920 432 1760 432
WIRE 16 464 16 432
WIRE 720 512 720 464
WIRE 16 576 16 544
WIRE 112 576 16 576
WIRE 16 608 16 576
WIRE 208 608 208 384
WIRE 112 656 112 576
WIRE 112 656 80 656
WIRE 144 656 112 656
WIRE 1616 752 1616 416
WIRE 1760 752 1760 432
WIRE 16 768 16 704
WIRE 208 768 208 704
FLAG 1760 -128 Vo
FLAG -544 -128 Vref
IOPIN -544 -128 Out
FLAG 1472 288 Vf
IOPIN 1472 288 Out
FLAG -560 80 0
FLAG -336 -128 vcc
IOPIN -336 -128 Out
FLAG 1760 752 0
FLAG 1616 752 0
FLAG -16 288 Vref
IOPIN -16 288 In
FLAG -16 432 Vref
IOPIN -16 432 In
FLAG -352 80 0
FLAG 16 768 0
FLAG 208 768 0
FLAG 80 -128 vcc
IOPIN 80 -128 In
FLAG 304 -128 vcc
IOPIN 304 -128 In
FLAG 912 -128 vcc
IOPIN 912 -128 In
FLAG 704 -128 vcc
IOPIN 704 -128 In
FLAG 432 288 Vf
IOPIN 432 288 In
FLAG 608 288 Vref
IOPIN 608 288 In
FLAG 720 512 0
FLAG 544 192 vdc
IOPIN 544 192 In
FLAG 144 192 vdc
IOPIN 144 192 Out
DATAFLAG 1584 -32 ""
DATAFLAG 1472 -128 ""
DATAFLAG 976 0 ""
DATAFLAG 1024 144 ""
DATAFLAG 320 0 ""
DATAFLAG 96 32 ""
DATAFLAG 176 96 ""
DATAFLAG 96 192 ""
DATAFLAG 720 -128 ""
DATAFLAG 1520 288 ""
DATAFLAG 400 288 ""
DATAFLAG 16 288 ""
DATAFLAG 752 192 ""
DATAFLAG 720 16 ""
DATAFLAG 240 192 ""
SYMBOL pnp 160 144 R180
SYMATTR InstName Q3
SYMATTR Value BC557C
SYMBOL pnp 256 144 M180
SYMATTR InstName Q4
SYMATTR Value BC557C
SYMBOL npn 32 240 R0
SYMATTR InstName Q1
SYMATTR Value BC547C
SYMBOL npn 384 240 M0
SYMATTR InstName Q2
SYMATTR Value BC547C
SYMBOL pnp 1024 -16 M270
SYMATTR InstName Q5
SYMATTR Value D45H11
SYMBOL npn 976 112 R270
SYMATTR InstName Q6
SYMATTR Value 2N3019
SYMBOL res 1600 112 R0
SYMATTR InstName R5
SYMATTR Value 15k
SYMBOL res 1600 320 R0
SYMATTR InstName R6
SYMATTR Value 15k
SYMBOL res 1744 144 R0
SYMATTR InstName RL
SYMATTR Value {RL}
SYMBOL voltage -560 -80 R0
WINDOW 123 24 124 Left 2
WINDOW 39 0 0 Left 0
SYMATTR Value2 AC {VREFAC}
SYMATTR InstName V1
SYMATTR Value {VREFDC}
SYMBOL res 80 -96 R0
SYMATTR InstName R8
SYMATTR Value {RE}
SYMBOL res 304 -96 R0
SYMATTR InstName R9
SYMATTR Value {RE}
SYMBOL cap 1904 160 R0
SYMATTR InstName C3
SYMATTR Value 1µ
SYMBOL voltage -352 -80 R0
WINDOW 123 24 124 Left 2
WINDOW 39 0 0 Left 0
SYMATTR Value2 AC {VINAC}
SYMATTR InstName VIN
SYMATTR Value {VINDC}
SYMBOL npn 144 608 R0
SYMATTR InstName Q7
SYMATTR Value BC547C
SYMBOL npn 80 608 M0
SYMATTR InstName Q8
SYMATTR Value BC547C
SYMBOL res 0 448 R0
SYMATTR InstName Rpol
SYMATTR Value 1.84k
SYMBOL cap 688 176 R90
WINDOW 0 0 32 VBottom 2
WINDOW 3 32 32 VTop 2
SYMATTR InstName C1
SYMATTR Value 2n
SYMBOL npn 656 240 R0
SYMATTR InstName Q10
SYMATTR Value BC547C
SYMBOL res 704 368 R0
SYMATTR InstName R1
SYMATTR Value 1.84k
SYMBOL res 704 -96 R0
SYMATTR InstName R2
SYMATTR Value 100
SYMBOL pnp 656 144 M180
SYMATTR InstName Q9
SYMATTR Value BC557C
SYMBOL res 1376 -144 R90
WINDOW 0 0 56 VBottom 2
WINDOW 3 32 56 VTop 2
SYMATTR InstName R3
SYMATTR Value 100
SYMBOL npn 1264 128 M90
SYMATTR InstName Q11
SYMATTR Value 2N3019
TEXT 2112 472 Left 2 !.op
TEXT 2088 544 Left 2 !.param VINDC 5.8
TEXT 2088 584 Left 2 !.param VINAC 1
TEXT 2416 544 Left 2 !.param VREFDC 2.5
TEXT 2416 584 Left 2 !.param VREFAC 0
TEXT 2760 544 Left 2 !;param RL 1k
TEXT 2088 632 Left 2 !;dc VIN 2 24
TEXT 3168 584 Left 2 !;step param RE 1 1k 100
TEXT 3168 544 Left 2 !.param RE 500
TEXT 2752 584 Left 2 !.step param RL 1 10k 100
TEXT 2000 -24 Left 2 ;Mido regulacion de linea
TEXT 2000 16 Left 2 !.meas DC Vo1rl FIND V(Vo) AT=12
TEXT 2000 40 Left 2 !.meas DC Vo2rl FIND V(Vo) AT=24
TEXT 2000 64 Left 2 !.meas DC RegLin PARAM ((Vo2rl-Vo1rl)/12)
TEXT 2000 120 Left 2 ;Mido regulacion de carga
TEXT 2000 160 Left 2 !.meas OP Vo1rc FIND V(Vo) AT 100
TEXT 2000 184 Left 2 !.meas OP Vo2rc FIND V(Vo) AT 5
TEXT 2000 208 Left 2 !.meas OP Io1rc FIND I(RL) AT 100
TEXT 2000 232 Left 2 !.meas OP Io2rc FIND I(RL) AT 5
TEXT 2008 296 Left 2 ;Mido eficiencia
TEXT 2008 336 Left 2 ;-100*((V(vo)*I(RL))/(V(VIN)*I(VIN)))
TEXT 2000 256 Left 2 !.meas OP RegCar PARAM (-(Vo2rc-Vo1rc)/(Io2rc-Io1rc))
