Version 4
SHEET 1 1156 680
WIRE 64 -80 -80 -80
WIRE 208 -80 64 -80
WIRE 64 -32 64 -80
WIRE 208 -32 208 -80
WIRE 208 96 208 48
WIRE -80 112 -80 -80
WIRE 64 144 64 48
WIRE 144 144 64 144
WIRE 64 208 64 144
WIRE 208 240 208 192
WIRE 208 240 96 240
WIRE 208 256 208 240
WIRE 336 256 208 256
WIRE 208 288 208 256
WIRE -80 416 -80 192
WIRE 64 416 64 272
WIRE 208 416 208 368
FLAG 64 416 0
FLAG 208 416 0
FLAG -80 416 0
DATAFLAG 208 240 ""
DATAFLAG 80 144 ""
DATAFLAG 208 80 ""
SYMBOL tl431 80 208 M0
SYMATTR InstName U1
SYMBOL voltage -80 96 R0
WINDOW 123 0 0 Left 0
WINDOW 39 0 0 Left 0
SYMATTR InstName V1
SYMATTR Value 6
SYMBOL res 192 272 R0
SYMATTR InstName R1
SYMATTR Value 2.5k
SYMBOL res 48 -48 R0
SYMATTR InstName R2
SYMATTR Value 1k
SYMBOL npn 144 96 R0
SYMATTR InstName Q1
SYMATTR Value Qtip41c
SYMBOL res 192 -48 R0
SYMATTR InstName R3
SYMATTR Value 1k
TEXT -72 -136 Left 2 !.op
TEXT -72 -168 Left 2 !.lib tl431.lib
TEXT 432 -80 Left 2 !.MODEL Qtip41c npn\n+IS=7.55826e-11 BF=260.542 NF=1.11221 VAF=100\n+IKF=0.526814 ISE=1e-08 NE=2.18072 BR=26.0542\n+NR=1.5 VAR=1000 IKR=3.54059 ISC=1e-08\n+NC=1.63849 RB=4.56157 IRB=0.1 RBM=0.1\n+RE=0.0162111 RC=0.0810556 XTB=0.1 XTI=1\n+EG=1.206 CJE=1.93296e-10 VJE=0.4 MJE=0.259503\n+TF=1e-08 XTF=4.06972 VTF=7.1157 ITF=0.001\n+CJC=1.09657e-10 VJC=0.730921 MJC=0.23 XCJC=0.803085\n+FC=0.8 CJS=0 VJS=0.75 MJS=0.5\n+TR=9.01013e-08 PTF=0 KF=0 AF=1\n+ mfg=onsemi\n* Model generated on Dec 27, 2003\n* Model format: PSpice
