Version 4
SHEET 1 3616 1188
WIRE 208 -224 192 -224
WIRE 1328 -224 1312 -224
WIRE 2304 -224 2288 -224
WIRE 2288 -160 2288 -224
WIRE 208 -128 208 -224
WIRE 208 -128 96 -128
WIRE 320 -128 208 -128
WIRE 1328 -112 1328 -224
WIRE 1328 -112 1280 -112
WIRE 96 -80 96 -128
WIRE 320 -80 320 -128
WIRE 1216 -64 1152 -64
WIRE 1328 -16 1280 -16
WIRE 2288 -16 2288 -80
WIRE 1328 32 1328 -16
WIRE 1328 32 1152 32
WIRE 96 48 96 0
WIRE 320 48 320 0
WIRE 208 96 160 96
WIRE 256 96 208 96
WIRE 96 192 96 144
WIRE 208 192 208 96
WIRE 208 192 96 192
WIRE 320 192 320 144
WIRE 448 192 320 192
WIRE 848 192 448 192
WIRE 1088 192 1088 -16
WIRE 1088 192 848 192
WIRE 1328 192 1328 32
WIRE 1440 192 1328 192
WIRE 1632 192 1520 192
WIRE 1952 192 1632 192
WIRE 2288 192 1952 192
WIRE 2320 192 2288 192
WIRE 448 208 448 192
WIRE 848 224 848 192
WIRE 1328 224 1328 192
WIRE 96 240 96 192
WIRE 320 240 320 192
WIRE 1952 240 1952 192
WIRE 1984 240 1952 240
WIRE 32 288 -272 288
WIRE 448 288 448 272
WIRE 448 288 384 288
WIRE 624 288 448 288
WIRE 848 336 848 288
WIRE 1328 336 1328 304
WIRE 96 384 96 336
WIRE 208 384 96 384
WIRE 320 384 320 336
WIRE 320 384 208 384
WIRE 1952 384 1952 240
WIRE 624 432 624 288
WIRE 704 432 624 432
WIRE 864 432 784 432
WIRE 928 432 864 432
WIRE 1328 432 1328 416
WIRE 1424 432 1328 432
WIRE 1328 448 1328 432
WIRE 624 480 624 432
WIRE 864 480 864 432
WIRE 2288 496 2288 192
WIRE 2416 496 2288 496
WIRE -704 544 -848 544
WIRE -560 544 -704 544
WIRE 1328 560 1328 528
WIRE 1424 560 1424 432
WIRE 2288 560 2288 496
WIRE 2416 560 2416 496
WIRE 16 576 -16 576
WIRE -704 592 -704 544
WIRE 16 608 16 576
WIRE 624 608 624 544
WIRE 864 608 864 544
WIRE 1952 608 1952 464
WIRE 1952 608 1760 608
WIRE 1088 624 1088 192
WIRE 1376 624 1088 624
WIRE 1632 624 1632 192
WIRE 1632 624 1472 624
WIRE 2288 704 2288 640
WIRE 2416 704 2416 624
WIRE 2416 704 2288 704
WIRE -560 720 -560 544
WIRE 16 720 16 688
WIRE 112 720 16 720
WIRE -848 736 -848 544
WIRE 1952 736 1952 608
WIRE 16 752 16 720
WIRE 208 752 208 384
WIRE 624 752 624 688
WIRE 864 752 864 688
WIRE -704 768 -704 672
WIRE -624 768 -704 768
WIRE 112 800 112 720
WIRE 112 800 80 800
WIRE 144 800 112 800
WIRE -704 832 -704 768
WIRE -560 864 -560 816
WIRE -560 864 -672 864
WIRE -560 880 -560 864
WIRE -432 880 -560 880
WIRE 16 896 16 848
WIRE 208 896 208 848
WIRE -560 912 -560 880
WIRE 16 1024 16 976
WIRE 208 1024 208 976
WIRE 208 1024 16 1024
WIRE -848 1040 -848 816
WIRE -704 1040 -704 896
WIRE -560 1040 -560 992
WIRE 1952 1056 1952 816
WIRE 2288 1056 2288 704
WIRE 208 1120 208 1024
FLAG 2320 192 Vo
IOPIN 2320 192 Out
FLAG 928 432 Vf
IOPIN 928 432 In
FLAG 2304 -224 Vreg
IOPIN 2304 -224 Out
FLAG 2288 1056 0
FLAG 1952 1056 0
FLAG -272 288 Vref
IOPIN -272 288 In
FLAG -16 576 Vref
IOPIN -16 576 In
FLAG 2288 -16 0
FLAG 1312 -224 Vreg
IOPIN 1312 -224 In
FLAG 1328 560 0
FLAG 192 -224 Vreg
IOPIN 192 -224 In
FLAG 208 1120 0
FLAG 1984 240 Vo
IOPIN 1984 240 Out
FLAG 864 752 0
FLAG 624 752 0
FLAG 1760 608 Vf
IOPIN 1760 608 Out
FLAG -704 1040 0
FLAG -560 1040 0
FLAG -848 1040 0
FLAG -432 880 Vref
IOPIN -432 880 In
FLAG 848 336 0
DATAFLAG 16 288 ""
DATAFLAG 368 192 ""
DATAFLAG 112 192 ""
DATAFLAG 320 32 ""
DATAFLAG -560 864 ""
DATAFLAG -688 768 ""
DATAFLAG -560 704 ""
SYMBOL pnp 1216 -16 M180
SYMATTR InstName Q5
SYMATTR Value TIP42C
SYMBOL npn 1088 -64 R0
SYMATTR InstName Q6
SYMATTR Value BC547C
SYMBOL res 1936 368 R0
SYMATTR InstName RF1
SYMATTR Value 2.2k
SYMBOL res 1936 720 R0
SYMATTR InstName RF2
SYMATTR Value 2.2k
SYMBOL res 2272 544 R0
SYMATTR InstName RL
SYMATTR Value {RL}
SYMBOL res 80 -96 R0
SYMATTR InstName R8
SYMATTR Value {RE}
SYMBOL res 304 -96 R0
SYMATTR InstName R9
SYMATTR Value {RE}
SYMBOL cap 2400 560 R0
SYMATTR InstName CL
SYMATTR Value 1µ
SYMBOL voltage 2288 -176 R0
WINDOW 123 24 124 Left 2
WINDOW 39 0 0 Left 0
SYMATTR InstName VIN
SYMATTR Value {VINDC}
SYMBOL npn 144 752 R0
SYMATTR InstName Q7
SYMATTR Value BC547C
SYMBOL npn 80 752 M0
SYMATTR InstName Q8
SYMATTR Value BC547C
SYMBOL res 0 592 R0
SYMATTR InstName Rpol
SYMATTR Value 1k
SYMBOL npn 1376 560 M90
WINDOW 0 9 117 VRight 2
WINDOW 3 38 114 VRight 2
SYMATTR InstName Q9
SYMATTR Value BC547C
SYMBOL res 1536 176 R90
WINDOW 0 0 56 VBottom 2
WINDOW 3 32 56 VTop 2
SYMATTR InstName RS
SYMATTR Value 2.2
SYMBOL res 1312 432 R0
SYMATTR InstName R2
SYMATTR Value 10k
SYMBOL res 1312 208 R0
SYMATTR InstName R1_1
SYMATTR Value 220
SYMBOL res 192 880 R0
SYMATTR InstName RE7
SYMATTR Value 820
SYMBOL res 0 880 R0
SYMATTR InstName RE8
SYMATTR Value 820
SYMBOL res 1312 320 R0
SYMATTR InstName R1_2
SYMATTR Value 4.7k
SYMBOL res 848 592 R0
SYMATTR InstName 2*Rpi
SYMATTR Value 50k
SYMBOL ind 800 416 R90
WINDOW 0 5 56 VBottom 2
WINDOW 3 32 56 VTop 2
SYMATTR InstName L1
SYMATTR Value 1Meg
SYMBOL cap 848 480 R0
SYMATTR InstName C1
SYMATTR Value 1Meg
SYMBOL cap 608 480 R0
SYMATTR InstName C2
SYMATTR Value 1Meg
SYMBOL voltage 624 592 R0
WINDOW 123 24 124 Left 2
WINDOW 39 0 0 Left 0
SYMATTR Value2 AC 1
SYMATTR InstName V2
SYMATTR Value ""
SYMBOL npn 32 240 R0
SYMATTR InstName Q1
SYMATTR Value BC547C
SYMBOL npn 384 240 M0
SYMATTR InstName Q2
SYMATTR Value BC547C
SYMBOL pnp 160 144 R180
SYMATTR InstName Q3
SYMATTR Value BC557C
SYMBOL pnp 256 144 M180
SYMATTR InstName Q4
SYMATTR Value BC557C
SYMBOL tl431 -688 896 R180
SYMATTR InstName U1
SYMBOL voltage -848 720 R0
WINDOW 123 0 0 Left 0
WINDOW 39 0 0 Left 0
SYMATTR InstName V1
SYMATTR Value 6
SYMBOL res -576 896 R0
SYMATTR InstName R1
SYMATTR Value 2.7k
SYMBOL res -720 576 R0
SYMATTR InstName R3
SYMATTR Value 1k
SYMBOL npn -624 720 R0
SYMATTR InstName Q10
SYMATTR Value BC547C
SYMBOL cap 432 208 R0
SYMATTR InstName C3
SYMATTR Value 220n
SYMBOL cap 832 224 R0
SYMATTR InstName C4
SYMATTR Value 22n
TEXT 3152 248 Left 2 !;op
TEXT 2888 208 Left 2 !.param VINDC 9.5
TEXT 2888 248 Left 2 !.param VINAC 1
TEXT 2568 208 Left 2 !.param VREFDC 2.5
TEXT 2568 248 Left 2 !.param VREFAC 0
TEXT 2568 328 Left 2 !.param RL 1k
TEXT 3152 208 Left 2 !;dc VIN 2 24
TEXT 2568 480 Left 2 !;step param RE 1 1k 100
TEXT 2568 440 Left 2 !.param RE 470
TEXT 2568 368 Left 2 !;step dec param RL 1k 0.001 200
TEXT 2560 -216 Left 2 ;Mido regulacion de linea
TEXT 2560 -176 Left 2 !.meas DC Vo1rl FIND V(Vo) AT=12
TEXT 2560 -152 Left 2 !.meas DC Vo2rl FIND V(Vo) AT=24
TEXT 2560 -128 Left 2 !.meas DC RegLin PARAM ((Vo2rl-Vo1rl)/12)
TEXT 2560 -72 Left 2 ;Mido regulacion de carga
TEXT 2560 -32 Left 2 !.meas OP Vo1rc FIND V(Vo) AT 100
TEXT 2560 -8 Left 2 !.meas OP Vo2rc FIND V(Vo) AT 5
TEXT 2560 16 Left 2 !.meas OP Io1rc FIND I(RL) AT 100
TEXT 2560 40 Left 2 !.meas OP Io2rc FIND I(RL) AT 5
TEXT 2568 104 Left 2 ;Mido eficiencia
TEXT 2568 144 Left 2 ;-100*((V(vo)*I(RL))/(V(VIN)*I(VIN)))
TEXT 2560 64 Left 2 !.meas OP RegCar PARAM (-(Vo2rc-Vo1rc)/(Io2rc-Io1rc))
TEXT 2600 560 Left 2 ;Rpol Valores tipicos 1800
TEXT 2568 632 Left 2 !.MODEL TIP42C PNP (Is=66.19f Xti=3 Eg=1.11 Vaf=100 Bf=137.6 Ise=862.2f Ne=1.481  \n+ Ikf=1.642 Nk=.5695 Xtb=2 Br=5.88 Isc=273.5f Nc=1.24 Ikr=3.555 Rc=79.39m  \n+ Cjc=870.4p Mjc=.6481 Vjc=.75 Fc=.5 Cje=390.1p Mje=.4343 Vje=.75  \n+ Tr=235.4n Tf=23.21n Itf=71.33 Xtf=5.982 Vtf=10 Rb=.1 Vceo=100  \n+ Icrating=6 mfg=Texas)
TEXT -144 256 Center 6 ;+
TEXT 560 256 Center 6 ;-
TEXT 616 152 Center 5 ;vod
TEXT 304 -192 Left 2 ;Amplificador Diferencial
TEXT 1176 -192 Center 2 ;Etapa Ganancia de Corriente
TEXT 1576 120 Center 2 ;Limitador de Corriente
TEXT 1864 256 Center 2 ;Realimentador
TEXT 2224 432 Center 2 ;Carga
TEXT 2000 120 Left 2 !.ac dec 30 0.1 1Meg
TEXT 888 848 Left 2 !.inc LM324.lib
TEXT 896 904 Left 2 !.inc 2N7000.lib
TEXT 2568 408 Left 2 ;.step param CX list 10n 10n
TEXT 1800 504 Left 2 ;Valores Comerciales\n15nf\n10nf
TEXT -840 488 Left 2 !.op
LINE Normal 528 1072 -112 1072 1
LINE Normal -112 -176 -112 1072 1
LINE Normal 528 -176 528 1072 1
LINE Normal -112 -176 528 -176 1
LINE Normal 1408 112 1040 112 1
LINE Normal 1408 -176 1408 112 1
LINE Normal 1040 -176 1408 -176 1
LINE Normal 1040 112 1040 -176 1
LINE Normal 1680 144 1040 144 1
LINE Normal 1680 672 1680 144 1
LINE Normal 1056 672 1680 672 1
LINE Normal 1040 672 1056 672 1
LINE Normal 1040 144 1040 672 1
LINE Normal 1792 272 1792 592 1
LINE Normal 1792 592 1792 944 1
LINE Normal 2112 272 1792 272 1
LINE Normal 2112 944 2112 272 1
LINE Normal 1792 944 2112 944 1
LINE Normal 2464 448 2192 448 1
LINE Normal 2464 768 2464 448 1
LINE Normal 2192 768 2464 768 1
LINE Normal 2192 448 2192 768 1
